 Case_ID      AeroDyn15           ElastoDyn           ElastoDyn           ElastoDyn       ElastoDyn      ElastoDyn       Fst    Fst    HydroDyn   HydroDyn   HydroDyn  InflowWind   TurbSim   
              tau1_const           BlPitch1            BlPitch2            BlPitch3         NacYaw        RotSpeed       TMax  TStart   WaveHs   WaveSeed1    WaveTp   HWindSpeed  RandSeed1  
    0     5.6487249816476375   8.54555387826209    8.54555387826209    8.54555387826209       0      12.126090902239644  10.0   0.0      7.0     304524126     1.0        14.0     1501552846 
    1     4.687104833790162   12.040471312357951  12.040471312357951  12.040471312357951      0      12.126090902239644  10.0   0.0      7.0     1192975140    1.0        16.0     488200390  
    2     4.064940658805065   14.89443214656687   14.89443214656687   14.89443214656687       0      12.126090902239644  10.0   0.0      7.0     1668389755    1.0        18.0     1693606511 
    3     3.6077141366595242  17.44225325258054   17.44225325258054   17.44225325258054       0      12.126090902239644  10.0   0.0      7.0     489172031     1.0        20.0     680233354  
    4     3.2504702066389815  19.794782781744374  19.794782781744374  19.794782781744374      0      12.126090902239644  10.0   0.0      7.0     349375909     1.0        22.0     438466540  
