                  case_name DLC  (AeroDyn15, tau1_const)  (ElastoDyn, BlPitch1)  (ElastoDyn, BlPitch2)  (ElastoDyn, BlPitch3)  (ElastoDyn, NacYaw)  (ElastoDyn, RotSpeed)  (Fst, TMax)  (Fst, TStart)  (HydroDyn, WaveHs)  (HydroDyn, WaveSeed1)  (HydroDyn, WaveTp)  (InflowWind, HWindSpeed)  (TurbSim, RandSeed1)  (InflowWind, WindType)                                (InflowWind, Filename_Uni)                                (InflowWind, FileName_BTS)
DLC1.1_0_NREL5MW_OC3_spar_0 1.1                 5.648725               8.545554               8.545554               8.545554                    0              12.126091         10.0            0.0                 7.0              304524126                 1.0                      14.0            1501552846                       3 wind/NREL5MW_OC3_spar_NTM_U14.000000_Seed1501552846.0.bts wind/NREL5MW_OC3_spar_NTM_U14.000000_Seed1501552846.0.bts
DLC1.1_0_NREL5MW_OC3_spar_1 1.1                 4.687105              12.040471              12.040471              12.040471                    0              12.126091         10.0            0.0                 7.0             1192975140                 1.0                      16.0             488200390                       3  wind/NREL5MW_OC3_spar_NTM_U16.000000_Seed488200390.0.bts  wind/NREL5MW_OC3_spar_NTM_U16.000000_Seed488200390.0.bts
DLC1.1_0_NREL5MW_OC3_spar_2 1.1                 4.064941              14.894432              14.894432              14.894432                    0              12.126091         10.0            0.0                 7.0             1668389755                 1.0                      18.0            1693606511                       3 wind/NREL5MW_OC3_spar_NTM_U18.000000_Seed1693606511.0.bts wind/NREL5MW_OC3_spar_NTM_U18.000000_Seed1693606511.0.bts
DLC1.1_0_NREL5MW_OC3_spar_3 1.1                 3.607714              17.442253              17.442253              17.442253                    0              12.126091         10.0            0.0                 7.0              489172031                 1.0                      20.0             680233354                       3  wind/NREL5MW_OC3_spar_NTM_U20.000000_Seed680233354.0.bts  wind/NREL5MW_OC3_spar_NTM_U20.000000_Seed680233354.0.bts
DLC1.1_0_NREL5MW_OC3_spar_4 1.1                 3.250470              19.794783              19.794783              19.794783                    0              12.126091         10.0            0.0                 7.0              349375909                 1.0                      22.0             438466540                       3  wind/NREL5MW_OC3_spar_NTM_U22.000000_Seed438466540.0.bts  wind/NREL5MW_OC3_spar_NTM_U22.000000_Seed438466540.0.bts